Version 4
SHEET 1 880 680
WIRE 16 48 0 48
WIRE 112 48 80 48
WIRE 288 48 112 48
WIRE 112 64 112 48
WIRE 448 64 432 64
WIRE 544 64 512 64
WIRE 720 64 544 64
WIRE 544 80 544 64
WIRE 0 176 0 48
WIRE 0 176 -32 176
WIRE 16 176 0 176
WIRE 112 176 112 144
WIRE 112 176 80 176
WIRE 160 176 112 176
WIRE 288 192 288 48
WIRE 288 192 224 192
WIRE 320 192 288 192
WIRE 432 192 432 64
WIRE 432 192 400 192
WIRE 448 192 432 192
WIRE 544 192 544 160
WIRE 544 192 512 192
WIRE 592 192 544 192
WIRE 0 208 0 176
WIRE 160 208 112 208
WIRE 720 208 720 64
WIRE 720 208 656 208
WIRE 432 224 432 192
WIRE 592 224 544 224
WIRE 112 240 112 208
WIRE 544 256 544 224
FLAG 192 224 0
FLAG 0 288 0
FLAG -192 176 0
FLAG -192 32 0
FLAG -112 32 V+
FLAG 192 160 V+
FLAG 112 320 0
FLAG 624 240 0
FLAG 432 304 0
FLAG 624 176 V+
FLAG 544 336 0
SYMBOL OpAmps\\UniversalOpAmp2 192 192 R0
SYMATTR InstName U1
SYMBOL res -16 160 R90
WINDOW 0 0 56 VBottom 2
WINDOW 3 32 56 VTop 2
SYMATTR InstName R1
SYMATTR Value 5.1k
SYMBOL res 16 304 R180
WINDOW 0 36 76 Left 2
WINDOW 3 36 40 Left 2
SYMATTR InstName R2
SYMATTR Value 1.1k
SYMBOL cap 80 160 R90
WINDOW 0 0 32 VBottom 2
WINDOW 3 32 32 VTop 2
SYMATTR InstName C1
SYMATTR Value 1.5n
SYMBOL cap 80 32 R90
WINDOW 0 0 32 VBottom 2
WINDOW 3 32 32 VTop 2
SYMATTR InstName C2
SYMATTR Value 4.7n
SYMBOL res 96 48 R0
SYMATTR InstName R3
SYMATTR Value 510k
SYMBOL voltage -96 176 R90
WINDOW 0 -32 56 VBottom 2
WINDOW 3 32 56 VTop 2
WINDOW 123 60 56 VTop 2
WINDOW 39 0 0 Left 0
SYMATTR InstName V1
SYMATTR Value ""
SYMATTR Value2 AC 1
SYMBOL voltage -96 32 R90
WINDOW 0 -32 56 VBottom 2
WINDOW 3 32 56 VTop 2
WINDOW 123 0 0 Left 0
WINDOW 39 0 0 Left 0
SYMATTR InstName V2
SYMATTR Value 5
SYMBOL voltage 112 224 R0
WINDOW 123 0 0 Left 0
WINDOW 39 0 0 Left 0
SYMATTR InstName V3
SYMATTR Value 2.5
SYMBOL OpAmps\\UniversalOpAmp2 624 208 R0
SYMATTR InstName U2
SYMBOL res 448 320 R180
WINDOW 0 36 76 Left 2
WINDOW 3 36 40 Left 2
SYMATTR InstName R4
SYMATTR Value 1.1k
SYMBOL cap 512 176 R90
WINDOW 0 0 32 VBottom 2
WINDOW 3 32 32 VTop 2
SYMATTR InstName C3
SYMATTR Value 1.5n
SYMBOL cap 512 48 R90
WINDOW 0 0 32 VBottom 2
WINDOW 3 32 32 VTop 2
SYMATTR InstName C4
SYMATTR Value 4.7n
SYMBOL res 528 64 R0
SYMATTR InstName R5
SYMATTR Value 510k
SYMBOL voltage 544 240 R0
WINDOW 123 0 0 Left 0
WINDOW 39 0 0 Left 0
SYMATTR InstName V4
SYMATTR Value 2.5
SYMBOL res 416 176 R90
WINDOW 0 0 56 VBottom 2
WINDOW 3 32 56 VTop 2
SYMATTR InstName R6
SYMATTR Value 5.1k
TEXT -212 312 Left 2 !.ac dec 100 1 20k
